  
       XFOIL         Version 6.99
  
 Calculated polar for: NACA 0016                                       
  
 1 1 Reynolds number fixed          Mach number fixed         
  
 xtrf =   1.000 (top)        1.000 (bottom)  
 Mach =   0.410     Re =     8.694 e 6     Ncrit =   9.000
  
   alpha    CL        CD       CDp       CM     Top_Xtr  Bot_Xtr
  ------ -------- --------- --------- -------- -------- --------
  -5.000  -0.6379   0.00692   0.00236  -0.0033   0.6392   0.1000
  -4.000  -0.5112   0.00648   0.00189  -0.0019   0.5726   0.1361
  -3.000  -0.3840   0.00612   0.00153  -0.0010   0.5115   0.1809
  -2.000  -0.2563   0.00585   0.00129  -0.0004   0.4530   0.2317
  -1.000  -0.1283   0.00569   0.00115  -0.0002   0.3960   0.2854
   0.000  -0.0000   0.00564   0.00110   0.0000   0.3404   0.3400
   1.000   0.1282   0.00570   0.00115   0.0002   0.2849   0.3960
   2.000   0.2563   0.00585   0.00129   0.0005   0.2315   0.4529
   3.000   0.3839   0.00612   0.00153   0.0010   0.1808   0.5114
   4.000   0.5112   0.00648   0.00189   0.0019   0.1362   0.5725
   5.000   0.6379   0.00692   0.00236   0.0033   0.1001   0.6393
   6.000   0.7649   0.00744   0.00295   0.0051   0.0744   0.7053
   7.000   0.8912   0.00805   0.00367   0.0076   0.0558   0.7751
   8.000   1.0166   0.00879   0.00454   0.0109   0.0431   0.8406
   9.000   1.1399   0.00967   0.00558   0.0153   0.0345   0.8986
  10.000   1.2574   0.01078   0.00687   0.0215   0.0280   0.9476
  11.000   1.3604   0.01210   0.00837   0.0308   0.0239   0.9887
  12.000   1.4678   0.01406   0.01049   0.0385   0.0206   1.0000
  13.000   1.5508   0.01689   0.01352   0.0488   0.0182   1.0000
  14.000   1.6226   0.02129   0.01818   0.0578   0.0165   1.0000
  15.000   1.6638   0.02905   0.02629   0.0639   0.0154   1.0000
