  
       XFOIL         Version 6.99
  
 Calculated polar for: NACA 0016                                       
  
 1 1 Reynolds number fixed          Mach number fixed         
  
 xtrf =   1.000 (top)        1.000 (bottom)  
 Mach =   0.440     Re =     4.698 e 6     Ncrit =   9.000
  
   alpha    CL        CD       CDp       CM     Top_Xtr  Bot_Xtr
  ------ -------- --------- --------- -------- -------- --------
  -6.000  -0.7674   0.00809   0.00346  -0.0085   0.7858   0.0863
  -5.500  -0.7044   0.00774   0.00307  -0.0070   0.7513   0.1014
  -5.000  -0.6410   0.00744   0.00273  -0.0058   0.7166   0.1182
  -4.500  -0.5779   0.00714   0.00242  -0.0046   0.6816   0.1398
  -4.000  -0.5142   0.00690   0.00215  -0.0037   0.6460   0.1624
  -3.500  -0.4505   0.00668   0.00193  -0.0029   0.6112   0.1868
  -3.000  -0.3867   0.00646   0.00173  -0.0022   0.5788   0.2148
  -2.500  -0.3224   0.00631   0.00158  -0.0017   0.5456   0.2424
  -2.000  -0.2582   0.00619   0.00145  -0.0012   0.5123   0.2702
  -1.500  -0.1938   0.00607   0.00135  -0.0008   0.4822   0.3008
  -1.000  -0.1292   0.00601   0.00129  -0.0005   0.4514   0.3298
  -0.500  -0.0647   0.00598   0.00125  -0.0002   0.4191   0.3596
  -0.000  -0.0000   0.00594   0.00123   0.0000   0.3907   0.3908
   0.500   0.0647   0.00598   0.00125   0.0002   0.3597   0.4192
   1.000   0.1291   0.00601   0.00129   0.0005   0.3299   0.4512
   1.500   0.1938   0.00607   0.00135   0.0008   0.3009   0.4826
   2.000   0.2582   0.00619   0.00145   0.0012   0.2703   0.5123
   2.500   0.3224   0.00631   0.00157   0.0017   0.2425   0.5463
   3.000   0.3866   0.00646   0.00173   0.0022   0.2148   0.5789
   3.500   0.4505   0.00668   0.00193   0.0029   0.1869   0.6109
   4.000   0.5142   0.00690   0.00215   0.0037   0.1625   0.6460
   4.500   0.5779   0.00714   0.00242   0.0046   0.1397   0.6817
   5.000   0.6410   0.00744   0.00273   0.0058   0.1182   0.7162
   5.500   0.7044   0.00774   0.00307   0.0070   0.1013   0.7517
   6.000   0.7674   0.00809   0.00346   0.0085   0.0862   0.7856
   6.500   0.8302   0.00846   0.00389   0.0102   0.0742   0.8204
   7.000   0.8922   0.00888   0.00438   0.0122   0.0634   0.8525
   7.500   0.9544   0.00933   0.00490   0.0143   0.0555   0.8812
   8.000   1.0151   0.00982   0.00548   0.0169   0.0488   0.9092
   8.500   1.0745   0.01039   0.00613   0.0200   0.0431   0.9336
   9.000   1.1314   0.01100   0.00683   0.0236   0.0387   0.9552
   9.500   1.1842   0.01170   0.00762   0.0282   0.0350   0.9761
  10.000   1.2370   0.01254   0.00854   0.0326   0.0316   0.9928
  10.500   1.3053   0.01363   0.00971   0.0340   0.0287   0.9982
  11.000   1.3497   0.01472   0.01091   0.0395   0.0267   1.0000
  11.500   1.3875   0.01615   0.01245   0.0454   0.0248   1.0000
  12.000   1.4267   0.01789   0.01434   0.0505   0.0235   1.0000
  12.500   1.4607   0.02022   0.01682   0.0552   0.0221   1.0000
  13.000   1.4860   0.02346   0.02025   0.0592   0.0212   1.0000
  13.500   1.5042   0.02766   0.02466   0.0620   0.0203   1.0000
  14.000   1.5093   0.03335   0.03057   0.0633   0.0196   1.0000
  14.500   1.4988   0.04079   0.03823   0.0628   0.0192   1.0000
  15.000   1.4737   0.04989   0.04754   0.0606   0.0188   1.0000
  15.500   1.4359   0.06046   0.05829   0.0568   0.0186   1.0000
  16.000   1.3875   0.07236   0.07034   0.0516   0.0183   1.0000
  16.500   1.3352   0.08503   0.08315   0.0455   0.0181   1.0000
  17.000   1.2805   0.09842   0.09665   0.0384   0.0179   1.0000
  17.500   1.2280   0.11212   0.11046   0.0307   0.0177   1.0000
  18.000   1.1801   0.12600   0.12443   0.0222   0.0174   1.0000
  18.500   1.1386   0.13971   0.13822   0.0134   0.0171   1.0000
  19.000   1.1059   0.15300   0.15158   0.0045   0.0167   1.0000
  19.500   1.0795   0.16597   0.16462  -0.0045   0.0162   1.0000
  20.000   1.0564   0.17921   0.17791  -0.0141   0.0157   1.0000
